/*--------------------------------*- C++ -*----------------------------------*\
  =========                 |
  \\      /  F ield         | OpenFOAM: The Open Source CFD Toolbox
   \\    /   O peration     | Website:  https://openfoam.org
    \\  /    A nd           | Version:  dev
     \\/     M anipulation  |
\*---------------------------------------------------------------------------*/
FoamFile
{
    format      ascii;
    class       dictionary;
    location    "system";
    object      setFieldsDict;
}
// * * * * * * * * * * * * * * * * * * * * * * * * * * * * * * * * * * * * * //

defaultFieldValues
(
    volScalarFieldValue T 1500
    volScalarFieldValue T.solid 300
    volScalarFieldValue alpha 0
    volScalarFieldValue CELL.solid 1
    volScalarFieldValue GMSW.solid 0
    volScalarFieldValue LIGH.solid 0
    volScalarFieldValue LIGO.solid 0
    volScalarFieldValue MOIST.solid 0
);

#include "${FOAM_CASE}/constant/globalVars"

regions
(
    boxToCell
    {
        box (-1 $loc1y -1) ($cylrad $loc2y 1);
        fieldValues
        (
            volScalarFieldValue T 300
            volScalarFieldValue alpha 1
	    volScalarFieldValue CELL.solid 0.27127645
	    volScalarFieldValue GMSW.solid 0.206104641
	    volScalarFieldValue LIGH.solid 0.208580592
	    volScalarFieldValue LIGO.solid 0.133354805
	    volScalarFieldValue MOIST.solid 0.0492
        );
    }
);

// ************************************************************************* //
