/*--------------------------------*- C++ -*----------------------------------*\
  =========                 |
  \\      /  F ield         | OpenFOAM: The Open Source CFD Toolbox
   \\    /   O peration     | Website:  https://openfoam.org
    \\  /    A nd           | Version:  dev
     \\/     M anipulation  |
\*---------------------------------------------------------------------------*/
FoamFile
{
    format      ascii;
    class       dictionary;
    location    "system";
    object      setFieldsDict;
}
// * * * * * * * * * * * * * * * * * * * * * * * * * * * * * * * * * * * * * //

defaultFieldValues
(
    volScalarFieldValue T 1500
);

#include "${FOAM_CASE}/constant/globalVars"

regions
(
    boxToCell
    {
        box (-1 $loc1y -1) ($cylrad $loc2y 1);
        fieldValues
        (
            volScalarFieldValue T 300
        );
    }
);

// ************************************************************************* //
