/*--------------------------------*- C++ -*----------------------------------*\
  =========                 |
  \\      /  F ield         | OpenFOAM: The Open Source CFD Toolbox
   \\    /   O peration     | Website:  https://openfoam.org
    \\  /    A nd           | Version:  dev
     \\/     M anipulation  |
\*---------------------------------------------------------------------------*/
FoamFile
{
    format      ascii;
    class       dictionary;
    location    "system";
    object      setFieldsDict;
}
// * * * * * * * * * * * * * * * * * * * * * * * * * * * * * * * * * * * * * //

porosityval  0.1;
Ligval 0.5;
Cellval 0.5;

defaultFieldValues
(
    volScalarFieldValue T 300
    volScalarFieldValue porosity 1
    volScalarFieldValue Cell.solid 0
    volScalarFieldValue Lig.solid 0
    volVectorFieldValue U (0.0 0.1 0.0)

);

#include "${FOAM_CASE}/constant/globalVars"

regions
(
    boxToCell
    {
        box (-1 $loc1y -1) ($cylrad $loc2y 1);
        fieldValues
        (
            volScalarFieldValue T 300
            volScalarFieldValue porosity $porosityval
	        volScalarFieldValue Cell.solid #calc "$Ligval * ( 1.0 - $porosityval )"
	        volScalarFieldValue Lig.solid #calc "$Cellval * ( 1.0 - $porosityval )"
            volVectorFieldValue U (0.0 0.0 0.0)

        );
    }
);

// ************************************************************************* //
