/*--------------------------------*- C++ -*----------------------------------*\
  =========                 |
  \\      /  F ield         | OpenFOAM: The Open Source CFD Toolbox
   \\    /   O peration     | Website:  https://openfoam.org
    \\  /    A nd           | Version:  dev
     \\/     M anipulation  |
\*---------------------------------------------------------------------------*/
FoamFile
{
    version     2.0;
    format      ascii;
    class       volScalarField;
    object      p_rgh;
}
// * * * * * * * * * * * * * * * * * * * * * * * * * * * * * * * * * * * * * //

dimensions          [1 -1 -2 0 0 0 0];

internalField       uniform 1e5;

boundaryField
{
    gasinlet
    {
        type               fixedFluxPressure;
        value              $internalField;
    }
    
    solidsinlet
    {
        type               fixedFluxPressure;
        value              $internalField;
    }

    outlet
    {
        type            prghPressure;
        p               $internalField;
        value           $internalField;
    }

    pyrowall
    {
        type               fixedFluxPressure;
        value              $internalField;
    }

    adwall
    {
        type               fixedFluxPressure;
        value              $internalField;
    }

    frontback
    {
        type               empty;
    }
}

// * * * * * * * * * * * * * * * * * * * * * * * * * * * * * * * * * * * * * //
