/*--------------------------------*- C++ -*----------------------------------*\
  =========                 |
  \\      /  F ield         | OpenFOAM: The Open Source CFD Toolbox
   \\    /   O peration     | Website:  https://openfoam.org
    \\  /    A nd           | Version:  9
     \\/     M anipulation  |
\*---------------------------------------------------------------------------*/
FoamFile
{
    format      ascii;
    class       dictionary;
    object      topoSetDict;
}
// * * * * * * * * * * * * * * * * * * * * * * * * * * * * * * * * * * * * * //

#include "${FOAM_CASE}/constant/globalVars"

actions
(
    {
        name    pore1;
        type    cellSet;
        action  new;
        source  cylinderToCell;
        sourceInfo
        {
	   point1 ($c1x $c1y -1);
	   point2 ($c1x $c1y 1);
	   radius $rad;
        }
    }
    {
        name    pore2;
        type    cellSet;
        action  new;
        source  cylinderToCell;
        sourceInfo
        {
	   point1 ($c2x $c2y -1);
	   point2 ($c2x $c2y 1);
	   radius $rad;
        }
    }
    {
        name    pore1;
        type    cellZoneSet;
        action  new;
        source  setToCellZone;
        sourceInfo
        {
           set  pore1;
        }
    }
    {
        name    pore2;
        type    cellZoneSet;
        action  new;
        source  setToCellZone;
        sourceInfo
        {
           set  pore2;
        }
    }
);

// ************************************************************************* //
