/*--------------------------------*- C++ -*----------------------------------*\
  =========                 |
  \\      /  F ield         | OpenFOAM: The Open Source CFD Toolbox
   \\    /   O peration     | Website:  https://openfoam.org
    \\  /    A nd           | Version:  dev
     \\/     M anipulation  |
\*---------------------------------------------------------------------------*/
FoamFile
{
    version     2.0;
    format      ascii;
    class       dictionary;
    location    "system";
    object      controlDict;
}
// * * * * * * * * * * * * * * * * * * * * * * * * * * * * * * * * * * * * * //

application     multiphaseEulerFoam;

startFrom       latestTime;

startTime       0;

stopAt          endTime;

endTime         20;

deltaT          1e-5;

writeControl    adjustableRunTime;//runTime;

writeInterval   0.1;

purgeWrite      0;

writeFormat     ascii;

writePrecision  6;

writeCompression off;

timeFormat      general;

timePrecision   6;

runTimeModifiable on;

adjustTimeStep  yes;

maxCo           0.4;

maxDeltaT       1e-02;

functions
{
    #includeFunc    writeObjects(thermo:rho.gas)
    #includeFunc    writeObjects(thermo:rho.particles)
}

// ************************************************************************* //
