/*--------------------------------*- C++ -*----------------------------------*\
  =========                 |
  \\      /  F ield         | OpenFOAM: The Open Source CFD Toolbox
   \\    /   O peration     | Website:  https://openfoam.org
    \\  /    A nd           | Version:  dev
     \\/     M anipulation  |
\*---------------------------------------------------------------------------*/
FoamFile
{
    format      ascii;
    class       dictionary;
    location    "system";
    object      setFieldsDict;
}
// * * * * * * * * * * * * * * * * * * * * * * * * * * * * * * * * * * * * * //

porosityval  0.1;


defaultFieldValues
(
    volScalarFieldValue T 300
    volScalarFieldValue porosity 1
    volScalarFieldValue plastic.solid 0
    volVectorFieldValue U (0.0 0.1 0.0)

);

regions
(
    boxToCell
    {
        box (0.004 -0.002 -1) (0.008 0.002 0.004);
        fieldValues
        (
            volScalarFieldValue T 300
            volScalarFieldValue porosity $porosityval
	        volScalarFieldValue plastic.solid #calc "( 1.0 - $porosityval )"
            volVectorFieldValue U (0.0 0.0 0.0)

        );
    }
);

// ************************************************************************* //
